*HEADING
data\singletet.inp
*NODE
1, 0, 0, 1
2, 0, 1, 0
3, 1, 0, 0
4, 0, 0, 0
*ELEMENT, type=C3D4, ELSET=TET
1, 1, 2, 3, 4
*SOLID SECTION, ELSET=TET, MATERIAL=STEEL
*MATERIAL, NAME=STEEL
*ELASTIC
196.E9, 0.282
*STEP,PERTURBATION
50kN Concentrated Load
*STATIC
*BOUNDARY
2, 1, 3, 0
3, 1, 3, 0
4, 1, 3, 0
*CLOAD
1, 3, -50000
*NODE PRINT
U
*END STEP
